Version 4
SHEET 1 880 680
WIRE 304 80 48 80
WIRE 368 80 304 80
WIRE 496 80 432 80
WIRE 48 144 48 80
WIRE 304 144 304 80
WIRE 496 144 496 80
WIRE 48 288 48 224
WIRE 304 288 304 224
WIRE 304 288 48 288
WIRE 496 288 496 224
WIRE 496 288 304 288
WIRE 48 320 48 288
FLAG 48 320 0
SYMBOL voltage 48 128 R0
WINDOW 3 24 96 Left 1
WINDOW 123 0 0 Left 0
WINDOW 39 0 0 Left 0
SYMATTR Value SINE(0 2.82843 100)
SYMATTR InstName Vs
SYMBOL res 288 128 R0
SYMATTR InstName R1
SYMATTR Value 330
SYMBOL res 480 128 R0
SYMATTR InstName R2
SYMATTR Value 330
SYMBOL cap 432 64 R90
WINDOW 0 0 32 VBottom 2
WINDOW 3 32 32 VTop 2
SYMATTR InstName C1
SYMATTR Value 4.7µ
TEXT 368 320 Left 2 !.tran 0.1
