Version 4
SHEET 1 880 680
WIRE -512 48 -560 48
WIRE -400 48 -432 48
WIRE -176 48 -400 48
WIRE -400 80 -400 48
WIRE -688 176 -816 176
WIRE -560 176 -560 48
WIRE -560 176 -608 176
WIRE -512 176 -560 176
WIRE -400 176 -400 144
WIRE -400 176 -432 176
WIRE -336 176 -400 176
WIRE -176 192 -176 48
WIRE -176 192 -272 192
WIRE -816 208 -816 176
WIRE -336 208 -352 208
WIRE -560 224 -560 176
WIRE -560 320 -560 288
WIRE -352 320 -352 208
WIRE -816 352 -816 288
FLAG -560 320 0
FLAG -816 352 0
FLAG -304 224 VEE
FLAG -304 160 VCC
FLAG -64 176 0
FLAG 48 176 0
FLAG 48 96 VEE
FLAG -64 96 VCC
FLAG -352 320 0
SYMBOL OpAmps\\UniversalOpAmp -304 192 R0
SYMATTR InstName U1
SYMBOL res -592 160 R90
WINDOW 0 0 56 VBottom 2
WINDOW 3 32 56 VTop 2
SYMATTR InstName R1
SYMATTR Value 8.2k
SYMBOL res -416 160 R90
WINDOW 0 0 56 VBottom 2
WINDOW 3 32 56 VTop 2
SYMATTR InstName R2
SYMATTR Value 43k
SYMBOL res -416 32 R90
WINDOW 0 0 56 VBottom 2
WINDOW 3 32 56 VTop 2
SYMATTR InstName R3
SYMATTR Value 180k
SYMBOL cap -416 80 R0
SYMATTR InstName C1
SYMATTR Value 10n
SYMBOL cap -576 224 R0
SYMATTR InstName C2
SYMATTR Value 1µ
SYMBOL voltage -816 192 R0
WINDOW 123 24 124 Left 2
WINDOW 39 0 0 Left 0
SYMATTR Value2 AC 1
SYMATTR InstName V1
SYMATTR Value ""
SYMBOL voltage -64 80 R0
WINDOW 123 0 0 Left 0
WINDOW 39 0 0 Left 0
SYMATTR InstName V2
SYMATTR Value 12
SYMBOL voltage 48 80 R0
WINDOW 123 0 0 Left 0
WINDOW 39 0 0 Left 0
SYMATTR InstName V3
SYMATTR Value -12
TEXT -848 376 Left 2 !.ac dec 1000 1 10000
